I am a good boy. I like to play.
New Line.